*Custom Compiler Version L-2016.06-3
*Sat May 11 21:23:14 2019

*.SCALE METER
*.LDD

********************************************************************************
* Library          : saed14_sram_single
* Cell             : saedrvt14_CGLNPR_2
* View             : schematic
* View Search List : auCdl schematic
* View Stop List   : auCdl
********************************************************************************
.subckt saedrvt14_CGLNPR_2 CLK EN GCLK SE VBN VBP VDD VSS
*.PININFO CLK:I EN:I GCLK:O SE:I VBN:I VBP:I VDD:I VSS:I
MN7 net100 ENL VSS VBN n08 l=0.014u nf=2 m=1 nfin=2
MN9 net98 net100 VSS VBN n08 l=0.014u nf=2 m=1 nfin=2
MN10 GCLK net98 VSS VBN n08 l=0.014u nf=4 m=1 nfin=2
MN8 net98 CLKP VSS VBN n08 l=0.014u nf=2 m=1 nfin=2
MN1 net2 SE VSS VBN n08 l=0.014u nf=1.0 m=1 nfin=2
MN2 net2 EN VSS VBN n08 l=0.014u nf=1.0 m=1 nfin=2
MN11 CLKN CLK VSS VBN n08 l=0.014u nf=1.0 m=1 nfin=2
MM7 CLKP CLKN VSS VBN n08 l=0.014u nf=2 m=1 nfin=2
MN6 net5 ENL VSS VBN n08 l=0.014u nf=1.0 m=1 nfin=2
MN5 net3 CLKN net5 VBN n08 l=0.014u nf=1.0 m=1 nfin=2
MN4 ENL net3 VSS VBN n08 l=0.014u nf=1.0 m=1 nfin=2
MN3 net2 CLKP net3 VBN n08 l=0.014u nf=1.0 m=1 nfin=2
MP7 net100 ENL VDD VBP p08 l=0.014u nf=2 m=1 nfin=2
MM8 net98 net100 net66 VBP p08 l=0.014u nf=2 m=1 nfin=2
MP10 GCLK net98 VDD VBP p08 l=0.014u nf=4 m=1 nfin=2
MP8 net66 CLKP VDD VBP p08 l=0.014u nf=2 m=1 nfin=2
MP2 net2 EN net1 VBP p08 l=0.014u nf=1.0 m=1 nfin=2
MP1 net1 SE VDD VBP p08 l=0.014u nf=1.0 m=1 nfin=2
MP5 net4 ENL VDD VBP p08 l=0.014u nf=1.0 m=1 nfin=2
MP6 net3 CLKP net4 VBP p08 l=0.014u nf=1.0 m=1 nfin=2
MP4 ENL net3 VDD VBP p08 l=0.014u nf=1.0 m=1 nfin=2
MP11 CLKN CLK VDD VBP p08 l=0.014u nf=1.0 m=1 nfin=2
MM6 CLKP CLKN VDD VBP p08 l=0.014u nf=2 m=1 nfin=2
MP3 net2 CLKN net3 VBP p08 l=0.014u nf=1.0 m=1 nfin=2
.ends saedrvt14_CGLNPR_2

********************************************************************************
* Library          : cdls
* Cell             : saedrvt14_Clk_gate
* View             : schematic
* View Search List : auCdl schematic
* View Stop List   : auCdl
********************************************************************************
.subckt saedrvt14_Clk_gate CLK CSB GCLK VBN VBP VDD VSS
*.PININFO CLK:I CSB:I GCLK:O VBN:I VBP:I VDD:I VSS:I
MN1 net11 CSB VSS VBN n08 l=0.014u nf=2 m=1 nfin=2
XI0 CLK net11 GCLK VSS VBN VBP VDD VSS saedrvt14_CGLNPR_2
MP1 net11 CSB VDD VBP p08 l=0.014u nf=2 m=1 nfin=2
.ends saedrvt14_Clk_gate


*Custom Compiler Version L-2016.06-3
*Sat May 11 21:23:15 2019

*.SCALE METER
*.LDD

********************************************************************************
* Library          : saed14_sram_single
* Cell             : saedrvt14_sgd_NAND2_1
* View             : schematic
* View Search List : auCdl schematic
* View Stop List   : auCdl
********************************************************************************
.subckt saedrvt14_sgd_NAND2_1 A1 A2 VBN VBP VDD VSS Y
*.PININFO A1:I A2:I VBN:I VBP:I VDD:I VSS:I Y:O
MN1 Y A1 net11 VBN n08 l=0.014u nf=1.0 m=1 nfin=3
MM5 net11 A2 VSS VBN n08 l=0.014u nf=1.0 m=1 nfin=4
MP2 Y A2 VDD VBP p08 l=0.014u nf=1.0 m=1 nfin=2
MM4 Y A1 VDD VBP p08 l=0.014u nf=1.0 m=1 nfin=3
.ends saedrvt14_sgd_NAND2_1

********************************************************************************
* Library          : saed14_sram_single
* Cell             : saedrvt14_sgd_DELLN3_2
* View             : schematic
* View Search List : auCdl schematic
* View Stop List   : auCdl
********************************************************************************
.subckt saedrvt14_sgd_DELLN3_2 A VBN VBP VDD VSS Y
*.PININFO A:I VBN:I VBP:I VDD:I VSS:I Y:O
MM135 net711 VDD net712 VBN n08 l=0.014u nf=1.0 m=1 nfin=2
MM131 net709 VDD VSS VBN n08 l=0.014u nf=1.0 m=1 nfin=2
MM132 net708 VDD net709 VBN n08 l=0.014u nf=1.0 m=1 nfin=2
MM136 net712 VDD VSS VBN n08 l=0.014u nf=1.0 m=1 nfin=2
MN4 net638 VDD VSS VBN n08 l=0.014u nf=1.0 m=1 nfin=2
MM126 net640 VDD net638 VBN n08 l=0.014u nf=1.0 m=1 nfin=2
MN1 SA1 A VSS VBN n08 l=0.014u nf=1.0 m=1 nfin=2
MM127 SA2 SA1 net640 VBN n08 l=0.014u nf=1.0 m=1 nfin=2
MM138 net714 VDD VSS VBN n08 l=0.014u nf=1.0 m=1 nfin=2
MM128 SA4 SA3 net705 VBN n08 l=0.014u nf=1.0 m=1 nfin=2
MM140 SA3 SA2 VSS VBN n08 l=0.014u nf=1.0 m=1 nfin=2
MM139 net713 VDD net714 VBN n08 l=0.014u nf=1.0 m=1 nfin=2
MM133 SA6 SA5 net708 VBN n08 l=0.014u nf=1.0 m=1 nfin=2
MM134 SA8 SA7 net711 VBN n08 l=0.014u nf=1.0 m=1 nfin=2
MM129 net705 VDD net706 VBN n08 l=0.014u nf=1.0 m=1 nfin=2
MM137 SA10 SA9 net713 VBN n08 l=0.014u nf=1.0 m=1 nfin=2
MM143 SA9 SA8 VSS VBN n08 l=0.014u nf=1.0 m=1 nfin=2
MM130 net706 VDD VSS VBN n08 l=0.014u nf=1.0 m=1 nfin=2
MM145 Y SA11 VSS VBN n08 l=0.014u nf=1.0 m=1 nfin=2
MM141 SA5 SA4 VSS VBN n08 l=0.014u nf=1.0 m=1 nfin=2
MM142 SA7 SA6 VSS VBN n08 l=0.014u nf=1.0 m=1 nfin=2
MM144 SA11 SA10 VSS VBN n08 l=0.014u nf=1.0 m=1 nfin=2
MM146 net617 VSS VDD VBP p08 l=0.014u nf=1.0 m=1 nfin=2
MP3 net619 VSS net617 VBP p08 l=0.014u nf=1.0 m=1 nfin=2
MP1 SA1 A VDD VBP p08 l=0.014u nf=1.0 m=1 nfin=2
MP2 SA2 SA1 net619 VBP p08 l=0.014u nf=1.0 m=1 nfin=2
MM161 SA7 SA6 VDD VBP p08 l=0.014u nf=1.0 m=1 nfin=2
MM150 net728 VSS net727 VBP p08 l=0.014u nf=1.0 m=1 nfin=2
MM163 SA11 SA10 VDD VBP p08 l=0.014u nf=1.0 m=1 nfin=2
MM162 SA9 SA8 VDD VBP p08 l=0.014u nf=1.0 m=1 nfin=2
MM149 SA4 SA3 net728 VBP p08 l=0.014u nf=1.0 m=1 nfin=2
MM153 SA6 SA5 net730 VBP p08 l=0.014u nf=1.0 m=1 nfin=2
MM157 SA8 SA7 net733 VBP p08 l=0.014u nf=1.0 m=1 nfin=2
MM148 SA5 SA4 VDD VBP p08 l=0.014u nf=1.0 m=1 nfin=2
MM160 SA10 SA9 net735 VBP p08 l=0.014u nf=1.0 m=1 nfin=2
MM159 net735 VSS net734 VBP p08 l=0.014u nf=1.0 m=1 nfin=2
MM158 net734 VSS VDD VBP p08 l=0.014u nf=1.0 m=1 nfin=2
MM152 net729 VSS VDD VBP p08 l=0.014u nf=1.0 m=1 nfin=2
MM154 net730 VSS net729 VBP p08 l=0.014u nf=1.0 m=1 nfin=2
MM147 SA3 SA2 VDD VBP p08 l=0.014u nf=1.0 m=1 nfin=2
MM151 net727 VSS VDD VBP p08 l=0.014u nf=1.0 m=1 nfin=2
MM155 net733 VSS net732 VBP p08 l=0.014u nf=1.0 m=1 nfin=2
MM156 net732 VSS VDD VBP p08 l=0.014u nf=1.0 m=1 nfin=2
MM164 Y SA11 VDD VBP p08 l=0.014u nf=1.0 m=1 nfin=2
.ends saedrvt14_sgd_DELLN3_2

********************************************************************************
* Library          : saed14_sram_single
* Cell             : saedrvt14_sgd_INV_1
* View             : schematic
* View Search List : auCdl schematic
* View Stop List   : auCdl
********************************************************************************
.subckt saedrvt14_sgd_INV_1 A VBN VBP VDD VSS Y
*.PININFO A:I VBN:I VBP:I VDD:I VSS:I Y:O
MP Y A VDD VBP p08 l=0.014u nf=2.0 m=1 nfin=3
MN Y A VSS VBN n08 l=0.014u nf=1.0 m=1 nfin=4
.ends saedrvt14_sgd_INV_1

********************************************************************************
* Library          : saed14_sram_single
* Cell             : saedrvt14_sgd_DEL1d5
* View             : schematic
* View Search List : auCdl schematic
* View Stop List   : auCdl
********************************************************************************
.subckt saedrvt14_sgd_DEL1d5 VBN VBP VDD VSS in out
*.PININFO VBN:I VBP:I VDD:I VSS:I in:I out:O
XI25 net6 VBN VBP VDD VSS net13 saedrvt14_sgd_DELLN3_2
XI26 net12 VBN VBP VDD VSS net11 saedrvt14_sgd_DELLN3_2
XI27 net9 VBN VBP VDD VSS net19 saedrvt14_sgd_DELLN3_2
XI28 net19 VBN VBP VDD VSS net18 saedrvt14_sgd_DELLN3_2
XI29 net18 VBN VBP VDD VSS net17 saedrvt14_sgd_DELLN3_2
XI30 net15 VBN VBP VDD VSS out saedrvt14_sgd_DELLN3_2
XI1 net4 VBN VBP VDD VSS net7 saedrvt14_sgd_DELLN3_2
XI22 net13 VBN VBP VDD VSS net12 saedrvt14_sgd_INV_1
XI23 net11 VBN VBP VDD VSS net9 saedrvt14_sgd_INV_1
XI21 net7 VBN VBP VDD VSS net6 saedrvt14_sgd_INV_1
XI24 net17 VBN VBP VDD VSS net15 saedrvt14_sgd_INV_1
XI0 in VBN VBP VDD VSS net4 saedrvt14_sgd_INV_1
.ends saedrvt14_sgd_DEL1d5

********************************************************************************
* Library          : saed14_sram_single
* Cell             : saedrvt14_sgd_AN2_1
* View             : schematic
* View Search List : auCdl schematic
* View Stop List   : auCdl
********************************************************************************
.subckt saedrvt14_sgd_AN2_1 A1 A2 VBN VBP VDD VSS Y
*.PININFO A1:I A2:I VBN:I VBP:I VDD:I VSS:I Y:O
MN3 Y net84 VSS VBN n08 l=0.014u nf=1.0 m=1 nfin=3
MM12 net72 A2 VSS VBN n08 l=0.014u nf=1.0 m=1 nfin=3
MN1 net84 A1 net72 VBN n08 l=0.014u nf=1.0 m=1 nfin=3
MM11 Y net84 VDD VBP p08 l=0.014u nf=1.0 m=1 nfin=4
MM10 net84 A1 VDD VBP p08 l=0.014u nf=1.0 m=1 nfin=3
MP2 net84 A2 VDD VBP p08 l=0.014u nf=1.0 m=1 nfin=3
.ends saedrvt14_sgd_AN2_1

********************************************************************************
* Library          : saed14_sram_single
* Cell             : saedrvt14_sgd_OR2_1
* View             : schematic
* View Search List : auCdl schematic
* View Stop List   : auCdl
********************************************************************************
.subckt saedrvt14_sgd_OR2_1 A1 A2 VBN VBP VDD VSS Y
*.PININFO A1:I A2:I VBN:I VBP:I VDD:I VSS:I Y:O
MN0 Y net126 VSS VBN n08 l=0.014u nf=1 m=1 nfin=4
MN1 net126 A1 VSS VBN n08 l=0.014u nf=1.0 m=1 nfin=3
MM14 net126 A2 VSS VBN n08 l=0.014u nf=1.0 m=1 nfin=3
MP0 Y net126 VDD VBP p08 l=0.014u nf=1 m=1 nfin=4
MM15 net95 A1 VDD VBP p08 l=0.014u nf=1.0 m=1 nfin=3
MP2 net126 A2 net95 VBP p08 l=0.014u nf=1.0 m=1 nfin=3
.ends saedrvt14_sgd_OR2_1

********************************************************************************
* Library          : saed14_sram_single
* Cell             : saedrvt14_sgd_DEL1d5_v2
* View             : schematic
* View Search List : auCdl schematic
* View Stop List   : auCdl
********************************************************************************
.subckt saedrvt14_sgd_DEL1d5_v2 VBN VBP VDD VSS in out
*.PININFO VBN:I VBP:I VDD:I VSS:I in:I out:O
XI27 net9 VBN VBP VDD VSS net19 saedrvt14_sgd_DELLN3_2
XI28 net19 VBN VBP VDD VSS net18 saedrvt14_sgd_DELLN3_2
XI30 net18 VBN VBP VDD VSS out saedrvt14_sgd_DELLN3_2
XI23 in VBN VBP VDD VSS net9 saedrvt14_sgd_INV_1
.ends saedrvt14_sgd_DEL1d5_v2

********************************************************************************
* Library          : saed14_sram_single
* Cell             : saedrvt14_sgd_INV_1_SEN
* View             : schematic
* View Search List : auCdl schematic
* View Stop List   : auCdl
********************************************************************************
.subckt saedrvt14_sgd_INV_1_SEN A VBN VBP VDD VSS Y
*.PININFO A:I VBN:I VBP:I VDD:I VSS:I Y:O
MP Y A VDD VBP p08 l=0.014u nf=6 m=1 nfin=4
MN Y A VSS VBN n08 l=0.014u nf=5 m=1 nfin=4
.ends saedrvt14_sgd_INV_1_SEN

********************************************************************************
* Library          : saed14_sram_single
* Cell             : saedrvt14_sgd_DMUX
* View             : schematic
* View Search List : auCdl schematic
* View Stop List   : auCdl
********************************************************************************
.subckt saedrvt14_sgd_DMUX S T VBN VBP VDD VSS Y1 Y2
*.PININFO S:I T:I VBN:I VBP:I VDD:I VSS:I Y1:O Y2:O
XI7 T S VBN VBP VDD VSS Y1 saedrvt14_sgd_AN2_1
XI4 T net31 VBN VBP VDD VSS Y2 saedrvt14_sgd_AN2_1
XI6 S VBN VBP VDD VSS net31 saedrvt14_sgd_INV_1
.ends saedrvt14_sgd_DMUX

********************************************************************************
* Library          : cdls
* Cell             : saedrvt14_CONTROL
* View             : schematic
* View Search List : auCdl schematic
* View Stop List   : auCdl
********************************************************************************
.subckt saedrvt14_CONTROL CE ORE PR SE SEN VDD VSS WE WEB WL
*.PININFO CE:I ORE:O PR:O SE:O SEN:O VDD:I VSS:I WE:O WEB:I WL:O
XI2 net166 CE VSS VDD VDD VSS net152 saedrvt14_sgd_NAND2_1
XI21 VSS VDD VDD VSS net164 net163 saedrvt14_sgd_DEL1d5
XI19 VSS VDD VDD VSS net159 net157 saedrvt14_sgd_DEL1d5
XI14 VSS VDD VDD VSS net152 net146 saedrvt14_sgd_DEL1d5
XI17 VSS VDD VDD VSS net152 net151 saedrvt14_sgd_DEL1d5
XI15 VSS VDD VDD VSS net146 net145 saedrvt14_sgd_DEL1d5
XI0 VSS VDD VDD VSS CE net9 saedrvt14_sgd_DEL1d5
XI12 net145 net71 VSS VDD VDD VSS net159 saedrvt14_sgd_AN2_1
XI6 net116 WEB VSS VDD VDD VSS ORE saedrvt14_sgd_AN2_1
XI13 net76 net75 VSS VDD VDD VSS WL saedrvt14_sgd_OR2_1
XI22 net163 VSS VDD VDD VSS PR saedrvt14_sgd_INV_1
XI20 net157 VSS VDD VDD VSS WE saedrvt14_sgd_INV_1
XI18 net151 VSS VDD VDD VSS net164 saedrvt14_sgd_INV_1
XI1 net9 VSS VDD VDD VSS net166 saedrvt14_sgd_INV_1
XI16 VSS VDD VDD VSS net145 net116 saedrvt14_sgd_DEL1d5_v2
XI8 SE VSS VDD VDD VSS SEN saedrvt14_sgd_INV_1_SEN
XI9 WEB net146 VSS VDD VDD VSS net75 net71 saedrvt14_sgd_DMUX
XI7 WEB net145 VSS VDD VDD VSS SE net76 saedrvt14_sgd_DMUX
.ends saedrvt14_CONTROL


*Custom Compiler Version L-2016.06-3
*Sat May 11 21:23:19 2019

*.SCALE METER
*.LDD

********************************************************************************
* Library          : cdls
* Cell             : saedrvt14_INV_1P5
* View             : schematic
* View Search List : auCdl schematic
* View Stop List   : auCdl
********************************************************************************
.subckt saedrvt14_INV_1P5 VDD VSS VBP VBN X A
*.PININFO VDD:I VSS:I VBP:I VBN:I X:O A:I
Mxmn0 X A VSS VBN n08 l=0.014u nf=1 m=1 nfin=4
Mxmp1 X A VDD VBP p08 l=0.014u nf=1 m=1 nfin=4
.ends saedrvt14_INV_1P5

********************************************************************************
* Library          : cdls
* Cell             : saedrvt14_INV_1_4x4_rw
* View             : schematic
* View Search List : auCdl schematic
* View Stop List   : auCdl
********************************************************************************
.subckt saedrvt14_INV_1_4x4_rw A[0] A[1] A[2] A[3] VDD VSS Y[0] Y[1] Y[2] Y[3]
*.PININFO A[0]:I A[1]:I A[2]:I A[3]:I VDD:I VSS:I Y[0]:O Y[1]:O Y[2]:O Y[3]:O
XI1[0] VDD VSS VDD VSS Y[0] A[0] saedrvt14_INV_1P5
XI1[1] VDD VSS VDD VSS Y[1] A[1] saedrvt14_INV_1P5
XI1[2] VDD VSS VDD VSS Y[2] A[2] saedrvt14_INV_1P5
XI1[3] VDD VSS VDD VSS Y[3] A[3] saedrvt14_INV_1P5
.ends saedrvt14_INV_1_4x4_rw


*Custom Compiler Version L-2016.06-3
*Sat May 11 21:23:20 2019

*.SCALE METER
*.LDD

********************************************************************************
* Library          : cdls
* Cell             : saedrvt14_INV_1P5
* View             : schematic
* View Search List : auCdl schematic
* View Stop List   : auCdl
********************************************************************************
.subckt saedrvt14_INV_1P5 VDD VSS VBP VBN X A
*.PININFO VDD:I VSS:I VBP:I VBN:I X:O A:I
Mxmn0 X A VSS VBN n08 l=0.014u nf=1 m=1 nfin=4
Mxmp1 X A VDD VBP p08 l=0.014u nf=1 m=1 nfin=4
.ends saedrvt14_INV_1P5


*Custom Compiler Version L-2016.06-3
*Sat May 11 21:23:21 2019

*.SCALE METER
*.LDD

********************************************************************************
* Library          : saed14_sram_single
* Cell             : saedrvt14_TNBUFFX1
* View             : schematic
* View Search List : auCdl schematic
* View Stop List   : auCdl
********************************************************************************
.subckt saedrvt14_TNBUFFX1 A EN N_EN Y vdd vss
*.PININFO A:I EN:I N_EN:I Y:O vdd:I vss:I
MM5 net11 EN net9 vss n08 l=0.014u nf=1 m=1 nfin=2
MM6 Y net9 vss vss n08 l=0.014u nf=1 m=1 nfin=2
MM7 net9 N_EN vss vss n08 l=0.014u nf=1 m=1 nfin=4
MM4 net9 A vss vss n08 l=0.014u nf=1 m=1 nfin=4
MM3 net9 N_EN net11 vdd p08 l=0.014u nf=1 m=1 nfin=4
MM2 net11 EN vdd vdd p08 l=0.014u nf=1 m=1 nfin=4
MM1 Y net11 vdd vdd p08 l=0.014u nf=1 m=1 nfin=2
MM0 net11 A vdd vdd p08 l=0.014u nf=1 m=1 nfin=3
.ends saedrvt14_TNBUFFX1

********************************************************************************
* Library          : saed14_sram_single
* Cell             : saedrvt14_sgd_wblock
* View             : schematic
* View Search List : auCdl schematic
* View Stop List   : auCdl
********************************************************************************
.subckt saedrvt14_sgd_wblock D VDD VSS outn outp wen
*.PININFO D:I VDD:I VSS:I outn:B outp:B wen:I
MM9 outp wen net3 VSS n08 l=0.014u nf=3 m=1 nfin=4
MM8 net1 D VSS VSS n08 l=0.014u nf=2 m=1 nfin=5
MM5 outn wen net1 VSS n08 l=0.014u nf=3 m=1 nfin=4
MM7 VSS D net16 VSS n08 l=0.014u nf=1 m=1 nfin=4
MM6 net3 net16 VSS VSS n08 l=0.014u nf=2 m=1 nfin=5
MM4 VDD D net16 VDD p08 l=0.014u nf=1 m=1 nfin=2
.ends saedrvt14_sgd_wblock

********************************************************************************
* Library          : saed14_sram_single
* Cell             : saedrvt14_HDBSVT14_FDP_V2_0P5
* View             : schematic
* View Search List : auCdl schematic
* View Stop List   : auCdl
********************************************************************************
.subckt saedrvt14_HDBSVT14_FDP_V2_0P5 VDD VSS VBP VBN Q QN CK D
*.PININFO VDD:I VSS:I VBP:I VBN:I Q:O QN:O CK:I D:I
Mxmn1 clkbb clkb VSS VBN n08 l=0.014u nf=1 m=1 nfin=3
Mxmn0 clkb CK VSS VBN n08 l=0.014u nf=1 m=1 nfin=3
Mxmibase#2fn13 ibase#2fnet046 qf_x VSS VBN n08 l=0.014u nf=1 m=1 nfin=2
Mxmibase#2fn12 mq_x clkbb ibase#2fnet048 VBN n08 l=0.014u nf=1 m=1 nfin=3
Mxmibase#2fn11 ibase#2fnet048 mq VSS VBN n08 l=0.014u nf=1 m=1 nfin=3
Mxmibase#2fn10 mq mq_x VSS VBN n08 l=0.014u nf=1 m=1 nfin=3
Mxmibase#2fn9 qf clkb ibase#2fnet046 VBN n08 l=0.014u nf=1 m=1 nfin=3
Mxmibase#2fn8 qf_x qf VSS VBN n08 l=0.014u nf=1 m=1 nfin=2
Mxmibase#2fn6 mq_x clkb ibase#2fnet028 VBN n08 l=0.014u nf=1 m=1 nfin=3
Mxmibase#2fn5 mq clkbb qf VBN n08 l=0.014u nf=1 m=1 nfin=3
Mxmibase#2fn0 ibase#2fnet028 D VSS VBN n08 l=0.014u nf=1 m=1 nfin=3
Mxmi3#2fn0 QN qf VSS VBN n08 l=0.014u nf=1 m=1 nfin=2
Mxmi2#2fn0 Q qf_x VSS VBN n08 l=0.014u nf=1 m=1 nfin=2
Mxmp1 clkbb clkb VDD VBP p08 l=0.014u nf=1 m=1 nfin=3
Mxmp0 clkb CK VDD VBP p08 l=0.014u nf=1 m=1 nfin=3
Mxmibase#2fp11 ibase#2fnet045 qf_x VDD VBP p08 l=0.014u nf=1 m=1 nfin=2
Mxmibase#2fp10 mq_x clkb ibase#2fnet047 VBP p08 l=0.014u nf=1 m=1 nfin=3
Mxmibase#2fp9 ibase#2fnet047 mq VDD VBP p08 l=0.014u nf=1 m=1 nfin=3
Mxmibase#2fp8 mq mq_x VDD VBP p08 l=0.014u nf=1 m=1 nfin=3
Mxmibase#2fp7 qf clkbb ibase#2fnet045 VBP p08 l=0.014u nf=1 m=1 nfin=2
Mxmibase#2fp6 qf_x qf VDD VBP p08 l=0.014u nf=1 m=1 nfin=2
Mxmibase#2fp4 mq_x clkbb ibase#2fnet027 VBP p08 l=0.014u nf=1 m=1 nfin=3
Mxmibase#2fp3 qf clkb mq VBP p08 l=0.014u nf=1 m=1 nfin=2
Mxmibase#2fp1 ibase#2fnet027 D VDD VBP p08 l=0.014u nf=1 m=1 nfin=3
Mxmi3#2fp1 QN qf VDD VBP p08 l=0.014u nf=1 m=1 nfin=2
Mxmi2#2fp1 Q qf_x VDD VBP p08 l=0.014u nf=1 m=1 nfin=2
.ends saedrvt14_HDBSVT14_FDP_V2_0P5

********************************************************************************
* Library          : saed14_sram_single
* Cell             : saedrvt14_FDP_V2_0P5
* View             : schematic
* View Search List : auCdl schematic
* View Stop List   : auCdl
********************************************************************************
.subckt saedrvt14_FDP_V2_0P5 VDD VSS VBP VBN Q QN CK D
*.PININFO VDD:I VSS:I VBP:I VBN:I Q:O QN:O CK:I D:I
Mxmn1 clkbb clkb VSS VBN n08 l=0.014u nf=1 m=1 nfin=3
Mxmn0 clkb CK VSS VBN n08 l=0.014u nf=1 m=1 nfin=3
Mxmibase#2fn13 ibase#2fnet046 qf_x VSS VBN n08 l=0.014u nf=1 m=1 nfin=2
Mxmibase#2fn12 mq_x clkbb ibase#2fnet048 VBN n08 l=0.014u nf=1 m=1 nfin=3
Mxmibase#2fn11 ibase#2fnet048 mq VSS VBN n08 l=0.014u nf=1 m=1 nfin=3
Mxmibase#2fn10 mq mq_x VSS VBN n08 l=0.014u nf=1 m=1 nfin=3
Mxmibase#2fn9 qf clkb ibase#2fnet046 VBN n08 l=0.014u nf=1 m=1 nfin=3
Mxmibase#2fn8 qf_x qf VSS VBN n08 l=0.014u nf=1 m=1 nfin=2
Mxmibase#2fn6 mq_x clkb ibase#2fnet028 VBN n08 l=0.014u nf=1 m=1 nfin=3
Mxmibase#2fn5 mq clkbb qf VBN n08 l=0.014u nf=1 m=1 nfin=3
Mxmibase#2fn0 ibase#2fnet028 D VSS VBN n08 l=0.014u nf=1 m=1 nfin=3
Mxmi3#2fn0 QN qf VSS VBN n08 l=0.014u nf=1 m=1 nfin=2
Mxmi2#2fn0 Q qf_x VSS VBN n08 l=0.014u nf=1 m=1 nfin=2
Mxmp1 clkbb clkb VDD VBP p08 l=0.014u nf=1 m=1 nfin=3
Mxmp0 clkb CK VDD VBP p08 l=0.014u nf=1 m=1 nfin=3
Mxmibase#2fp11 ibase#2fnet045 qf_x VDD VBP p08 l=0.014u nf=1 m=1 nfin=2
Mxmibase#2fp10 mq_x clkb ibase#2fnet047 VBP p08 l=0.014u nf=1 m=1 nfin=3
Mxmibase#2fp9 ibase#2fnet047 mq VDD VBP p08 l=0.014u nf=1 m=1 nfin=3
Mxmibase#2fp8 mq mq_x VDD VBP p08 l=0.014u nf=1 m=1 nfin=3
Mxmibase#2fp7 qf clkbb ibase#2fnet045 VBP p08 l=0.014u nf=1 m=1 nfin=2
Mxmibase#2fp6 qf_x qf VDD VBP p08 l=0.014u nf=1 m=1 nfin=2
Mxmibase#2fp4 mq_x clkbb ibase#2fnet027 VBP p08 l=0.014u nf=1 m=1 nfin=3
Mxmibase#2fp3 qf clkb mq VBP p08 l=0.014u nf=1 m=1 nfin=2
Mxmibase#2fp1 ibase#2fnet027 D VDD VBP p08 l=0.014u nf=1 m=1 nfin=3
Mxmi3#2fp1 QN qf VDD VBP p08 l=0.014u nf=1 m=1 nfin=2
Mxmi2#2fp1 Q qf_x VDD VBP p08 l=0.014u nf=1 m=1 nfin=2
.ends saedrvt14_FDP_V2_0P5

********************************************************************************
* Library          : saed14_sram_single
* Cell             : saedrvt14_sgd_sa
* View             : schematic
* View Search List : auCdl schematic
* View Stop List   : auCdl
********************************************************************************
.subckt saedrvt14_sgd_sa inn inp out se sen vdd vss
*.PININFO inn:I inp:I out:O se:I sen:I vdd:I vss:I
MM4 net27 net22 net2 vss n08 l=0.014u nf=2 m=1 nfin=6
MM5 net2 sen vss vss n08 l=0.014u nf=5 m=1 nfin=4
MM6 out net25 net2 vss n08 l=0.014u nf=2 m=1 nfin=6
MM0 net25 se inn vdd p08 l=0.014u nf=1 m=1 nfin=4
MM2 net22 se inp vdd p08 l=0.014u nf=1 m=1 nfin=4
MM1 out net27 vdd vdd p08 l=0.014u nf=2 m=1 nfin=6
MM3 net27 out vdd vdd p08 l=0.014u nf=2 m=1 nfin=6
.ends saedrvt14_sgd_sa

********************************************************************************
* Library          : saed14_sram_single
* Cell             : saedrvt14_ioreg
* View             : schematic
* View Search List : auCdl schematic
* View Stop List   : auCdl
********************************************************************************
.subckt saedrvt14_ioreg CLK I N_EN O ORE SE SEN bl0 bl1 dff_clk vdd vss wen
*.PININFO CLK:I I:I N_EN:I O:O ORE:I SE:I SEN:I bl0:I bl1:I dff_clk:I vdd:I
*.PININFO vss:I wen:I
XI5 net96 ORE N_EN O vdd vss saedrvt14_TNBUFFX1
XI9 net81 vdd vss bl1 bl0 wen saedrvt14_sgd_wblock
XI32 vdd vss vdd vss net81 Qn CLK I saedrvt14_HDBSVT14_FDP_V2_0P5
XI31 vdd vss vdd vss net96 QN dff_clk net100 saedrvt14_FDP_V2_0P5
XI2 bl1 bl0 net100 SE SEN vdd vss saedrvt14_sgd_sa
.ends saedrvt14_ioreg

********************************************************************************
* Library          : cdls
* Cell             : saedrvt14_ioreg_4x4_RW
* View             : schematic
* View Search List : auCdl schematic
* View Stop List   : auCdl
********************************************************************************
.subckt saedrvt14_ioreg_4x4_RW CLK[0] CLK[1] CLK[2] CLK[3] I[0] I[1] I[2] I[3]
+ N_EN[0] N_EN[1] N_EN[2] N_EN[3] O[0] O[1] O[2] O[3] ORE[0] ORE[1] ORE[2]
+ ORE[3] SE[0] SE[1] SE[2] SE[3] SEN[0] SEN[1] SEN[2] SEN[3] b0[0] b0[1] b0[2]
+ b0[3] b1[0] b1[1] b1[2] b1[3] dff_clk vdd vss wen[0] wen[1] wen[2] wen[3]
*.PININFO CLK[0]:I CLK[1]:I CLK[2]:I CLK[3]:I I[0]:I I[1]:I I[2]:I I[3]:I
*.PININFO N_EN[0]:I N_EN[1]:I N_EN[2]:I N_EN[3]:I O[0]:O O[1]:O O[2]:O O[3]:O
*.PININFO ORE[0]:I ORE[1]:I ORE[2]:I ORE[3]:I SE[0]:I SE[1]:I SE[2]:I SE[3]:I
*.PININFO SEN[0]:I SEN[1]:I SEN[2]:I SEN[3]:I b0[0]:I b0[1]:I b0[2]:I b0[3]:I
*.PININFO b1[0]:I b1[1]:I b1[2]:I b1[3]:I dff_clk:I vdd:I vss:I wen[0]:I
*.PININFO wen[1]:I wen[2]:I wen[3]:I
XI33[0] CLK[0] I[0] N_EN[0] O[0] ORE[0] SE[0] SEN[0] b0[0] b1[0] dff_clk vdd vss
+  wen[0] saedrvt14_ioreg
XI33[1] CLK[1] I[1] N_EN[1] O[1] ORE[1] SE[1] SEN[1] b0[1] b1[1] dff_clk vdd vss
+  wen[1] saedrvt14_ioreg
XI33[2] CLK[2] I[2] N_EN[2] O[2] ORE[2] SE[2] SEN[2] b0[2] b1[2] dff_clk vdd vss
+  wen[2] saedrvt14_ioreg
XI33[3] CLK[3] I[3] N_EN[3] O[3] ORE[3] SE[3] SEN[3] b0[3] b1[3] dff_clk vdd vss
+  wen[3] saedrvt14_ioreg
.ends saedrvt14_ioreg_4x4_RW


*Custom Compiler Version L-2016.06-3
*Sat May 11 21:23:24 2019

*.SCALE METER
*.LDD

********************************************************************************
* Library          : saed14_sram_single
* Cell             : saedrvt14_sgd_bitcell_prim
* View             : schematic
* View Search List : auCdl schematic
* View Stop List   : auCdl
********************************************************************************
.subckt saedrvt14_sgd_bitcell_prim VBN VBP VDD VSS prim0 prim1 wlprim
*.PININFO VBN:I VBP:I VDD:I VSS:I prim0:B prim1:B wlprim:I
MM1 net292 net291 VDD VBP p08 l=0.014u nf=1.0 m=1 nfin=1
MM0 net291 net292 VDD VBP p08 l=0.014u nf=1.0 m=1 nfin=1
MM6 prim1 wlprim net292 VBN n08 l=0.014u nf=1.0 m=1 nfin=2
MM4 net291 wlprim prim0 VBN n08 l=0.014u nf=1.0 m=1 nfin=2
MM3 net292 net291 VSS VBN n08 l=0.014u nf=1.0 m=1 nfin=3
MM2 net291 net292 VSS VBN n08 l=0.014u nf=1.0 m=1 nfin=3
.ends saedrvt14_sgd_bitcell_prim

********************************************************************************
* Library          : saed14_sram_single
* Cell             : saedrvt14_sgd_bitcell_row4_4x4_rw
* View             : schematic
* View Search List : auCdl schematic
* View Stop List   : auCdl
********************************************************************************
.subckt saedrvt14_sgd_bitcell_row4_4x4_rw prim0[0] prim0[1] prim0[2] prim0[3]
+ prim1[0] prim1[1] prim1[2] prim1[3] wlprim VDD VSS
*.PININFO prim0[0]:B prim0[1]:B prim0[2]:B prim0[3]:B prim1[0]:B prim1[1]:B
*.PININFO prim1[2]:B prim1[3]:B wlprim:I VDD:I VSS:I
XI0[0] VSS VDD VDD VSS prim0[0] prim1[0] wlprim saedrvt14_sgd_bitcell_prim
XI0[1] VSS VDD VDD VSS prim0[1] prim1[1] wlprim saedrvt14_sgd_bitcell_prim
XI0[2] VSS VDD VDD VSS prim0[2] prim1[2] wlprim saedrvt14_sgd_bitcell_prim
XI0[3] VSS VDD VDD VSS prim0[3] prim1[3] wlprim saedrvt14_sgd_bitcell_prim
.ends saedrvt14_sgd_bitcell_row4_4x4_rw

********************************************************************************
* Library          : cdls
* Cell             : saedrvt14_sgd_bitcell_matrix_4x4_rw
* View             : schematic
* View Search List : auCdl schematic
* View Stop List   : auCdl
********************************************************************************
.subckt saedrvt14_sgd_bitcell_matrix_4x4_rw VDD VSS prim0[0] prim1[0] prim0[1] prim1[1] prim0[2]
+ prim1[2] prim0[3] prim1[3] wlprim[0] wlprim[1] wlprim[2]
+ wlprim[3]
*.PININFO VDD:I VSS:I prim0[0]:B prim0[1]:B prim0[2]:B prim0[3]:B prim1[0]:B
*.PININFO prim1[1]:B prim1[2]:B prim1[3]:B wlprim[0]:I wlprim[1]:I wlprim[2]:I
*.PININFO wlprim[3]:I
XI8[0] prim0[0] prim0[1] prim0[2] prim0[3] prim1[0] prim1[1] prim1[2] prim1[3]
+ wlprim[0] VDD VSS saedrvt14_sgd_bitcell_row4_4x4_rw
XI8[1] prim0[0] prim0[1] prim0[2] prim0[3] prim1[0] prim1[1] prim1[2] prim1[3]
+ wlprim[1] VDD VSS saedrvt14_sgd_bitcell_row4_4x4_rw
XI8[2] prim0[0] prim0[1] prim0[2] prim0[3] prim1[0] prim1[1] prim1[2] prim1[3]
+ wlprim[2] VDD VSS saedrvt14_sgd_bitcell_row4_4x4_rw
XI8[3] prim0[0] prim0[1] prim0[2] prim0[3] prim1[0] prim1[1] prim1[2] prim1[3]
+ wlprim[3] VDD VSS saedrvt14_sgd_bitcell_row4_4x4_rw
.ends saedrvt14_sgd_bitcell_matrix_4x4_rw


*Custom Compiler Version L-2016.06-3
*Sat May 11 21:23:26 2019

*.SCALE METER
*.LDD

********************************************************************************
* Library          : saed14_sram_single
* Cell             : saedrvt14_NR2_1
* View             : schematic
* View Search List : auCdl schematic
* View Stop List   : auCdl
********************************************************************************
.subckt saedrvt14_NR2_1 VDD VSS VBP VBN X A1 A2
*.PININFO VDD:I VSS:I VBP:I VBN:I X:O A1:I A2:I
Mxmi0#2fn1 X A2 VSS VBN n08 l=0.014u nf=1 m=1 nfin=2
Mxmi0#2fn0 X A1 VSS VBN n08 l=0.014u nf=1 m=1 nfin=2
Mxmi0#2fp1 X A1 i0#2fmidp_a_b VBP p08 l=0.014u nf=1 m=1 nfin=3
Mxmi0#2fp0 i0#2fmidp_a_b A2 VDD VBP p08 l=0.014u nf=1 m=1 nfin=3
.ends saedrvt14_NR2_1

********************************************************************************
* Library          : saed14_sram_single
* Cell             : saedrvt14_sgd_ND2_0P5
* View             : schematic
* View Search List : auCdl schematic
* View Stop List   : auCdl
********************************************************************************
.subckt saedrvt14_sgd_ND2_0P5 A1 A2 VBN VBP VDD VSS Y
*.PININFO A1:I A2:I VBN:I VBP:I VDD:I VSS:I Y:O
MN1 Y A1 net11 VBN n08 l=0.014u nf=1.0 m=1 nfin=3
MM5 net11 A2 VSS VBN n08 l=0.014u nf=1.0 m=1 nfin=3
MP2 Y A2 VDD VBP p08 l=0.014u nf=1.0 m=1 nfin=3
MM4 Y A1 VDD VBP p08 l=0.014u nf=1.0 m=1 nfin=3
.ends saedrvt14_sgd_ND2_0P5

********************************************************************************
* Library          : saed14_sram_single
* Cell             : saedrvt14_FDP_V2_0P5
* View             : schematic
* View Search List : auCdl schematic
* View Stop List   : auCdl
********************************************************************************
.subckt saedrvt14_FDP_V2_0P5 VDD VSS VBP VBN Q QN CK D
*.PININFO VDD:I VSS:I VBP:I VBN:I Q:O QN:O CK:I D:I
Mxmn1 clkbb clkb VSS VBN n08 l=0.014u nf=1 m=1 nfin=3
Mxmn0 clkb CK VSS VBN n08 l=0.014u nf=1 m=1 nfin=3
Mxmibase#2fn13 ibase#2fnet046 qf_x VSS VBN n08 l=0.014u nf=1 m=1 nfin=2
Mxmibase#2fn12 mq_x clkbb ibase#2fnet048 VBN n08 l=0.014u nf=1 m=1 nfin=3
Mxmibase#2fn11 ibase#2fnet048 mq VSS VBN n08 l=0.014u nf=1 m=1 nfin=3
Mxmibase#2fn10 mq mq_x VSS VBN n08 l=0.014u nf=1 m=1 nfin=3
Mxmibase#2fn9 qf clkb ibase#2fnet046 VBN n08 l=0.014u nf=1 m=1 nfin=3
Mxmibase#2fn8 qf_x qf VSS VBN n08 l=0.014u nf=1 m=1 nfin=2
Mxmibase#2fn6 mq_x clkb ibase#2fnet028 VBN n08 l=0.014u nf=1 m=1 nfin=3
Mxmibase#2fn5 mq clkbb qf VBN n08 l=0.014u nf=1 m=1 nfin=3
Mxmibase#2fn0 ibase#2fnet028 D VSS VBN n08 l=0.014u nf=1 m=1 nfin=3
Mxmi3#2fn0 QN qf VSS VBN n08 l=0.014u nf=1 m=1 nfin=2
Mxmi2#2fn0 Q qf_x VSS VBN n08 l=0.014u nf=1 m=1 nfin=2
Mxmp1 clkbb clkb VDD VBP p08 l=0.014u nf=1 m=1 nfin=3
Mxmp0 clkb CK VDD VBP p08 l=0.014u nf=1 m=1 nfin=3
Mxmibase#2fp11 ibase#2fnet045 qf_x VDD VBP p08 l=0.014u nf=1 m=1 nfin=2
Mxmibase#2fp10 mq_x clkb ibase#2fnet047 VBP p08 l=0.014u nf=1 m=1 nfin=3
Mxmibase#2fp9 ibase#2fnet047 mq VDD VBP p08 l=0.014u nf=1 m=1 nfin=3
Mxmibase#2fp8 mq mq_x VDD VBP p08 l=0.014u nf=1 m=1 nfin=3
Mxmibase#2fp7 qf clkbb ibase#2fnet045 VBP p08 l=0.014u nf=1 m=1 nfin=2